*SRC=MMBTA06;DI_MMBTA06;BJTs NPN; Si;  80.0V  0.500A  219MHz   Diodes Inc. Transistor
.MODEL MMBTA06 npn
+ IS=50.8f NF=1.00 BF=479 VAF=161
+ IKF=91.1m ISE=9.99p NE=2.00 BR=4.00 NR=1.00
+ VAR=16.0 IKR=0.225 RE=0.103 RB=0.412 RC=41.2m
+ XTB=1.5 CJE=58.7p VJE=1.10 MJE=0.500 CJC=18.9p VJC=0.300
+ MJC=0.300 TF=576p TR=110n EG=1.12
