Version 4
SHEET 1 2292 916
WIRE 224 -480 224 -576
WIRE 224 -480 48 -480
WIRE 384 -480 224 -480
WIRE 816 -480 384 -480
WIRE 1584 -480 816 -480
WIRE 48 -416 48 -480
WIRE 384 -416 384 -480
WIRE 1584 -352 1584 -480
WIRE 816 -320 816 -480
WIRE 1312 -304 1136 -304
WIRE 1392 -304 1312 -304
WIRE 1520 -304 1456 -304
WIRE 1536 -304 1520 -304
WIRE 48 -288 48 -336
WIRE 384 -288 384 -336
WIRE 208 -240 112 -240
WIRE 320 -240 208 -240
WIRE 1312 -176 1312 -304
WIRE 1584 -176 1584 -256
WIRE 1776 -176 1584 -176
WIRE 1904 -176 1776 -176
WIRE 2080 -176 1968 -176
WIRE 2080 -160 2080 -176
WIRE 208 -128 208 -240
WIRE 384 -128 384 -192
WIRE 384 -128 208 -128
WIRE 816 -128 816 -240
WIRE 1776 -112 1776 -176
WIRE 48 -80 48 -192
WIRE 752 -80 48 -80
WIRE 1312 -64 1312 -112
WIRE 1712 -64 1312 -64
WIRE 2080 -48 2080 -80
WIRE 1488 16 544 16
WIRE 1776 16 1776 -16
WIRE 1776 16 1568 16
WIRE 816 48 816 -32
WIRE 816 48 720 48
WIRE 1136 48 1136 -304
WIRE 1136 48 816 48
WIRE 720 64 720 48
WIRE 48 144 48 -80
WIRE 384 144 384 -128
WIRE 816 160 816 48
WIRE 1312 176 1312 -64
WIRE -304 192 -384 192
WIRE -96 192 -240 192
WIRE -16 192 -96 192
WIRE 544 192 544 16
WIRE 544 192 448 192
WIRE 1776 192 1776 16
WIRE 2224 192 1776 192
WIRE 544 208 544 192
WIRE 720 208 720 144
WIRE 752 208 720 208
WIRE -384 224 -384 192
WIRE -96 224 -96 192
WIRE 2224 224 2224 192
WIRE 720 256 720 208
WIRE 48 288 48 240
WIRE 384 288 384 240
WIRE -96 320 -96 304
WIRE -96 320 -272 320
WIRE 544 320 544 288
WIRE -384 336 -384 304
WIRE 720 368 720 336
WIRE 2224 368 2224 304
WIRE -96 384 -96 320
WIRE 1776 384 1776 192
WIRE 48 400 48 368
WIRE 208 400 48 400
WIRE 384 400 384 368
WIRE 384 400 208 400
WIRE 544 400 544 384
WIRE 1312 432 1312 256
WIRE 1712 432 1312 432
WIRE 2064 432 2064 400
WIRE -272 464 -272 320
WIRE 720 464 720 448
WIRE 816 464 816 256
WIRE 816 464 720 464
WIRE 1136 464 816 464
WIRE 1312 496 1312 432
WIRE 208 512 208 400
WIRE 816 512 816 464
WIRE 1776 544 1776 480
WIRE 1776 544 1584 544
WIRE 1888 544 1776 544
WIRE 2064 544 2064 512
WIRE 2064 544 1952 544
WIRE -96 560 -96 464
WIRE -16 560 -96 560
WIRE 144 560 64 560
WIRE 752 560 144 560
WIRE 1584 608 1584 544
WIRE 1136 656 1136 464
WIRE 1312 656 1312 560
WIRE 1312 656 1136 656
WIRE 1392 656 1312 656
WIRE 1520 656 1456 656
WIRE 208 672 208 608
WIRE 816 688 816 608
WIRE 208 800 208 752
WIRE 816 800 816 768
WIRE 816 800 208 800
WIRE 1584 800 1584 704
WIRE 1584 800 816 800
WIRE 208 816 208 800
FLAG -272 464 0
FLAG 224 -656 0
FLAG 208 896 0
FLAG 544 400 0
FLAG -384 336 0
FLAG 2224 368 0
FLAG 2080 -48 0
FLAG 2064 400 0
SYMBOL npn -16 144 R0
SYMATTR InstName Q1
SYMBOL npn 448 144 M0
SYMATTR InstName Q2
SYMBOL pnp 320 -192 M180
SYMATTR InstName Q3
SYMBOL pnp 112 -192 R180
SYMATTR InstName Q4
SYMBOL res 32 272 R0
SYMATTR InstName R1
SYMATTR Value 22
SYMBOL res 368 272 R0
SYMATTR InstName R2
SYMATTR Value 22
SYMBOL res 32 -432 R0
SYMATTR InstName R3
SYMATTR Value 22
SYMBOL res 368 -432 R0
SYMATTR InstName R4
SYMATTR Value 22
SYMBOL npn 144 512 R0
SYMATTR InstName Q5
SYMBOL res 80 544 R90
WINDOW 0 0 56 VBottom 2
WINDOW 3 32 56 VTop 2
SYMATTR InstName R5
SYMATTR Value 4.7k
SYMBOL res -80 480 R180
WINDOW 0 36 76 Left 2
WINDOW 3 36 40 Left 2
SYMATTR InstName R6
SYMATTR Value 4.7k
SYMBOL res 192 656 R0
SYMATTR InstName R7
SYMATTR Value 470
SYMBOL res -112 208 R0
SYMATTR InstName R8
SYMATTR Value 22k
SYMBOL voltage 224 -560 R180
WINDOW 0 24 96 Left 2
WINDOW 3 24 16 Left 2
SYMATTR InstName V1
SYMATTR Value 40
SYMBOL voltage 208 912 R180
WINDOW 0 24 96 Left 2
WINDOW 3 24 16 Left 2
SYMATTR InstName V2
SYMATTR Value 40
SYMBOL res 528 192 R0
SYMATTR InstName R9
SYMATTR Value 1k
SYMBOL cap -240 176 R90
WINDOW 0 0 32 VBottom 2
WINDOW 3 32 32 VTop 2
SYMATTR InstName C1
SYMATTR Value 1µ
SYMBOL voltage -384 208 R0
WINDOW 3 24 152 Left 2
WINDOW 123 24 124 Left 2
WINDOW 39 0 0 Left 0
SYMATTR InstName V3
SYMATTR Value SINE(0 1v 1k 0)
SYMBOL pnp 752 -32 M180
SYMATTR InstName Q6
SYMBOL res 800 -336 R0
SYMATTR InstName R10
SYMATTR Value 22
SYMBOL npn 752 160 R0
SYMATTR InstName Q7
SYMBOL res 704 48 R0
SYMATTR InstName R11
SYMATTR Value 220
SYMBOL res 704 240 R0
SYMATTR InstName R12
SYMATTR Value 220
SYMBOL res 704 352 R0
SYMATTR InstName R13
SYMATTR Value 220
SYMBOL npn 752 512 R0
SYMATTR InstName Q8
SYMBOL res 800 672 R0
SYMATTR InstName R14
SYMATTR Value 22
SYMBOL zener 1328 -112 R180
WINDOW 0 24 64 Left 2
WINDOW 3 24 0 Left 2
SYMATTR InstName D2
SYMATTR Value 1N750
SYMBOL zener 1328 560 R180
WINDOW 0 24 64 Left 2
WINDOW 3 24 0 Left 2
SYMATTR InstName D3
SYMATTR Value 1N750
SYMBOL res 1296 160 R0
SYMATTR InstName R15
SYMATTR Value 220
SYMBOL diode 1392 -288 R270
WINDOW 0 32 32 VTop 2
WINDOW 3 0 32 VBottom 2
SYMATTR InstName D4
SYMBOL diode 1456 640 R90
WINDOW 0 0 32 VBottom 2
WINDOW 3 32 32 VTop 2
SYMATTR InstName D5
SYMBOL npn 1520 -352 R0
SYMATTR InstName Q9
SYMATTR Value 2N3055
SYMBOL npn 1712 -112 R0
SYMATTR InstName Q10
SYMATTR Value 2N3055
SYMBOL pnp 1520 704 M180
SYMATTR InstName Q11
SYMATTR Value D45H11
SYMBOL pnp 1712 480 M180
SYMATTR InstName Q12
SYMATTR Value D45H11
SYMBOL res 2208 208 R0
SYMATTR InstName R16
SYMATTR Value 8
SYMBOL voltage 2080 -176 R0
SYMATTR InstName V4
SYMATTR Value 20
SYMBOL voltage 2064 416 R0
SYMATTR InstName V5
SYMATTR Value 20
SYMBOL res 1584 0 R90
WINDOW 0 0 56 VBottom 2
WINDOW 3 32 56 VTop 2
SYMATTR InstName R17
SYMATTR Value 22k
SYMBOL cap 528 320 R0
SYMATTR InstName C2
SYMATTR Value 1µ
SYMBOL schottky 1968 -192 R90
WINDOW 0 0 32 VBottom 2
WINDOW 3 32 32 VTop 2
SYMATTR InstName D6
SYMBOL schottky 1888 560 R270
WINDOW 0 32 32 VTop 2
WINDOW 3 0 32 VBottom 2
SYMATTR InstName D7
TEXT -904 264 Left 2 !.tran 10m
