Version 4
SHEET 1 4340 2796
WIRE 512 -1264 512 -1312
WIRE 656 -1264 656 -1312
WIRE 512 -1152 512 -1184
WIRE 656 -1152 656 -1184
WIRE 512 -928 512 -992
WIRE 656 -928 656 -992
WIRE 512 -784 512 -848
WIRE 656 -784 656 -848
WIRE 544 -624 272 -624
WIRE 608 -624 544 -624
WIRE 1136 -624 608 -624
WIRE 1312 -624 1136 -624
WIRE 1808 -624 1312 -624
WIRE 3136 -592 2992 -592
WIRE 3280 -592 3136 -592
WIRE 1312 -544 1312 -624
WIRE 1408 -544 1312 -544
WIRE 272 -528 272 -624
WIRE 608 -528 608 -624
WIRE 1136 -496 1136 -624
WIRE 1312 -480 1312 -544
WIRE 1408 -480 1408 -544
WIRE 2640 -480 2160 -480
WIRE 2992 -384 2992 -592
WIRE 3136 -384 3136 -592
WIRE 1312 -352 1312 -400
WIRE 1408 -352 1408 -416
WIRE 1408 -352 1312 -352
WIRE 2160 -336 2160 -480
WIRE 2272 -336 2160 -336
WIRE 2432 -336 2368 -336
WIRE 2768 -336 2432 -336
WIRE 2928 -336 2848 -336
WIRE 272 -304 272 -448
WIRE 608 -304 608 -448
WIRE 3024 -288 2992 -288
WIRE 3072 -288 3072 -336
WIRE 3072 -288 3024 -288
WIRE 1312 -272 1312 -352
WIRE 432 -256 336 -256
WIRE 544 -256 432 -256
WIRE 2320 -256 2320 -272
WIRE 1136 -224 1136 -416
WIRE 1248 -224 1136 -224
WIRE 3280 -208 2880 -208
WIRE 1808 -160 1808 -624
WIRE 1808 -160 1712 -160
WIRE 432 -144 432 -256
WIRE 608 -144 608 -208
WIRE 608 -144 432 -144
WIRE 1136 -128 1136 -224
WIRE 2880 -112 2880 -208
WIRE 272 -80 272 -208
WIRE 1040 -80 272 -80
WIRE 1072 -80 1040 -80
WIRE 1712 -80 1712 -160
WIRE 2160 -64 2160 -336
WIRE 2160 -64 2064 -64
WIRE 2272 -64 2160 -64
WIRE 2672 -64 2368 -64
WIRE 2816 -64 2752 -64
WIRE 1648 -32 1424 -32
WIRE 1808 -32 1808 -160
WIRE 1136 0 1136 -32
WIRE 1312 0 1312 -176
WIRE 1312 0 1136 0
WIRE 1744 16 1712 16
WIRE 2640 32 2640 -480
WIRE 2880 48 2880 -16
WIRE 3136 48 3136 -288
WIRE 3136 48 2880 48
WIRE 1040 64 1040 -80
WIRE 1072 64 1040 64
WIRE 1312 64 1312 0
WIRE 1312 64 1136 64
WIRE 1424 64 1424 -32
WIRE 1424 64 1312 64
WIRE 2064 64 2064 -64
WIRE 2064 64 1808 64
WIRE 2320 64 2320 0
WIRE 2432 64 2432 -336
WIRE 2432 64 2320 64
WIRE 800 80 800 48
WIRE 800 80 736 80
WIRE 2320 80 2320 64
WIRE 2800 80 2704 80
WIRE 3136 80 3136 48
WIRE 3136 80 2880 80
WIRE 800 96 800 80
WIRE 3024 96 3024 -288
WIRE 3136 96 3136 80
WIRE 736 112 736 80
WIRE 1312 112 1312 64
WIRE 1312 112 1152 112
WIRE 1152 128 1152 112
WIRE 1312 128 1312 112
WIRE 272 144 272 -80
WIRE 608 144 608 -144
WIRE 2640 144 2640 128
WIRE 2320 176 2320 160
WIRE 2496 176 2320 176
WIRE -80 192 -160 192
WIRE 128 192 -16 192
WIRE 208 192 128 192
WIRE 736 192 736 176
WIRE 736 192 672 192
WIRE 800 192 800 176
WIRE 800 192 736 192
WIRE -160 224 -160 192
WIRE 128 224 128 192
WIRE 1312 224 1312 208
WIRE 1424 224 1424 64
WIRE 2480 224 2320 224
WIRE 3024 224 3024 176
WIRE 3024 224 2640 224
WIRE 3136 224 3136 176
WIRE 3136 224 3024 224
WIRE 3392 224 3136 224
WIRE 3488 224 3392 224
WIRE 800 240 800 192
WIRE 1152 272 1152 208
WIRE 1248 272 1152 272
WIRE 3024 272 3024 224
WIRE 3136 272 3136 224
WIRE 3392 272 3392 224
WIRE 272 288 272 240
WIRE 608 288 608 240
WIRE 1152 288 1152 272
WIRE 128 320 128 304
WIRE 128 320 -48 320
WIRE 2640 320 2640 224
WIRE -160 336 -160 304
WIRE 800 352 800 320
WIRE 2768 368 2704 368
WIRE 3136 368 3136 352
WIRE 3136 368 2848 368
WIRE 128 384 128 320
WIRE 2320 384 2320 304
WIRE 2432 384 2320 384
WIRE 272 400 272 368
WIRE 432 400 272 400
WIRE 608 400 608 368
WIRE 608 400 432 400
WIRE 3392 400 3392 352
WIRE 3136 416 3136 368
WIRE 3136 416 2880 416
WIRE 800 432 800 416
WIRE 2320 448 2320 384
WIRE -48 464 -48 320
WIRE 1152 464 1152 368
WIRE 1312 464 1312 320
WIRE 1312 464 1152 464
WIRE 1424 464 1424 288
WIRE 1424 464 1312 464
WIRE 1440 464 1424 464
WIRE 2880 464 2880 416
WIRE 432 512 432 400
WIRE 1312 512 1312 464
WIRE 2160 512 1808 512
WIRE 2272 512 2160 512
WIRE 2672 512 2368 512
WIRE 2816 512 2752 512
WIRE 128 560 128 464
WIRE 208 560 128 560
WIRE 368 560 288 560
WIRE 576 560 368 560
WIRE 1248 560 576 560
WIRE 1744 560 1712 560
WIRE 1440 608 1440 464
WIRE 1648 608 1440 608
WIRE 576 640 576 560
WIRE 2880 656 2880 560
WIRE 3296 656 2880 656
WIRE 432 672 432 608
WIRE 1312 688 1312 608
WIRE 1712 704 1712 656
WIRE 1808 704 1808 608
WIRE 1808 704 1712 704
WIRE 2320 720 2320 704
WIRE 3024 736 3024 352
WIRE 3024 736 3008 736
WIRE 3072 736 3024 736
WIRE 3136 736 3136 416
WIRE 2160 784 2160 512
WIRE 2272 784 2160 784
WIRE 2432 784 2432 384
WIRE 2432 784 2368 784
WIRE 2768 784 2432 784
WIRE 2944 784 2848 784
WIRE 3072 784 3072 736
WIRE 432 800 432 752
WIRE 576 800 576 784
WIRE 576 800 432 800
WIRE 1008 800 576 800
WIRE 1312 800 1312 768
WIRE 1312 800 1008 800
WIRE 1808 800 1808 704
WIRE 1808 800 1312 800
WIRE 3008 912 3008 832
WIRE 3136 912 3136 832
WIRE 3136 912 3008 912
WIRE 3296 912 3136 912
WIRE 2160 928 2160 784
WIRE 2640 928 2640 416
WIRE 2640 928 2160 928
WIRE 304 1056 96 1056
WIRE 624 1056 384 1056
WIRE 1248 1056 1248 1024
WIRE 1248 1056 1152 1056
WIRE 1328 1056 1248 1056
WIRE 1440 1056 1328 1056
WIRE 1328 1104 1328 1056
WIRE 400 1136 384 1136
WIRE 400 1152 400 1136
WIRE 1152 1168 1152 1056
WIRE 704 1184 704 1120
WIRE 1440 1184 1440 1056
WIRE 96 1216 96 1056
WIRE 224 1216 224 1168
WIRE 1328 1216 1328 1184
WIRE 1328 1216 1216 1216
WIRE 1328 1232 1328 1216
WIRE 400 1264 400 1216
WIRE 1152 1280 1152 1264
WIRE 1152 1280 1024 1280
WIRE 496 1312 464 1312
WIRE 624 1312 624 1056
WIRE 624 1312 576 1312
WIRE 704 1312 704 1264
WIRE 704 1312 624 1312
WIRE 224 1328 224 1280
WIRE 704 1344 704 1312
WIRE 1328 1360 1328 1312
WIRE 1440 1360 1440 1248
WIRE 1440 1360 1328 1360
WIRE 1632 1360 1632 1264
WIRE 1152 1376 1152 1280
WIRE 512 1424 400 1424
WIRE 400 1472 400 1424
WIRE 1440 1472 1392 1472
WIRE 1552 1472 1520 1472
WIRE 1632 1472 1632 1440
WIRE 1632 1472 1552 1472
WIRE 1152 1488 1152 1456
WIRE 96 1504 96 1280
WIRE 224 1504 224 1408
WIRE 224 1504 96 1504
WIRE 224 1520 224 1504
WIRE 704 1520 704 1424
WIRE 1632 1520 1632 1472
WIRE 512 1536 512 1424
WIRE 400 1568 400 1552
WIRE 400 1568 288 1568
WIRE 1328 1568 1328 1520
WIRE 1552 1568 1552 1472
WIRE 1152 1584 1152 1552
WIRE 400 1600 400 1568
WIRE 1328 1648 1328 1632
WIRE 1328 1648 1312 1648
WIRE 1632 1664 1632 1600
WIRE 224 1728 224 1616
WIRE 320 1728 224 1728
WIRE 400 1728 400 1680
WIRE 400 1728 320 1728
WIRE 512 1728 512 1600
WIRE 512 1728 400 1728
WIRE 1024 1728 1024 1280
WIRE 1232 1728 1024 1728
WIRE 1552 1728 1552 1632
WIRE 1552 1728 1312 1728
WIRE 320 1760 320 1728
FLAG -48 464 0
FLAG 800 432 0
FLAG -160 336 0
FLAG 3280 -592 +V_HIGH
FLAG 3280 -208 +V_LOW
FLAG 3392 400 0
FLAG 704 1520 0
FLAG 704 1120 +V_LOW
FLAG 3488 224 V_OUT
IOPIN 3488 224 Out
FLAG 384 1136 V_OUT
IOPIN 384 1136 In
FLAG 320 1760 -V_HIGH
FLAG 2320 -256 S_HIGH
FLAG 224 1168 S_HIGH
FLAG 2496 176 -V_HIGH
FLAG 3296 912 -V_HIGH
FLAG 3296 656 -V_LOW
FLAG 1632 1264 0
FLAG 1632 1664 -V_LOW
FLAG 1312 1648 V_OUT
IOPIN 1312 1648 In
FLAG 1248 1024 +V_HIGH
FLAG 2320 704 -S_HIGH
FLAG 1152 1584 -S_HIGH
FLAG 2480 224 +V_HIGH
FLAG 512 -1152 0
FLAG 656 -1152 0
FLAG 512 -1312 +V_HIGH
FLAG 656 -1312 +V_LOW
FLAG 512 -784 0
FLAG 656 -784 0
FLAG 512 -992 -V_HIGH
FLAG 656 -992 -V_LOW
FLAG 544 -624 +V_HIGH
FLAG 1008 800 -V_HIGH
FLAG 800 48 V_OUT
SYMBOL npn 208 144 R0
SYMATTR InstName Q1
SYMATTR Value BC850C
SYMBOL npn 672 144 M0
SYMATTR InstName Q2
SYMATTR Value BC850C
SYMBOL pnp 544 -208 M180
SYMATTR InstName Q3
SYMATTR Value BC860C
SYMBOL pnp 336 -208 R180
SYMATTR InstName Q4
SYMATTR Value BC860C
SYMBOL res 256 272 R0
SYMATTR InstName R1
SYMATTR Value 22
SYMBOL res 592 272 R0
SYMATTR InstName R2
SYMATTR Value 22
SYMBOL res 256 -544 R0
SYMATTR InstName R3
SYMATTR Value 22
SYMBOL res 592 -544 R0
SYMATTR InstName R4
SYMATTR Value 22
SYMBOL npn 368 512 R0
SYMATTR InstName Q5
SYMATTR Value BC850C
SYMBOL res 304 544 R90
WINDOW 0 0 56 VBottom 2
WINDOW 3 32 56 VTop 2
SYMATTR InstName R5
SYMATTR Value 4.7k
SYMBOL res 144 480 R180
WINDOW 0 36 76 Left 2
WINDOW 3 36 40 Left 2
SYMATTR InstName R6
SYMATTR Value 4.7k
SYMBOL res 416 656 R0
SYMATTR InstName R7
SYMATTR Value 2.2k
SYMBOL res 112 208 R0
SYMATTR InstName R8
SYMATTR Value 20k
SYMBOL res 784 224 R0
SYMATTR InstName R9
SYMATTR Value 1.2k
SYMBOL cap -16 176 R90
WINDOW 0 0 32 VBottom 2
WINDOW 3 32 32 VTop 2
SYMATTR InstName C1
SYMATTR Value 2.2µ
SYMBOL voltage -160 208 R0
WINDOW 3 24 152 Left 2
WINDOW 123 24 44 Left 2
WINDOW 39 0 0 Left 0
SYMATTR Value SINE(0 1.41 1k 0)
SYMATTR Value2 AC 1
SYMATTR InstName V3
SYMBOL pnp 1248 -176 M180
SYMATTR InstName Q6
SYMATTR Value BC860C
SYMBOL res 1296 -496 R0
SYMATTR InstName R10
SYMATTR Value 22
SYMBOL npn 1248 224 R0
SYMATTR InstName Q7
SYMATTR Value MJE340
SYMBOL res 1136 112 R0
SYMATTR InstName R11
SYMATTR Value 2.2k
SYMBOL res 1136 272 R0
SYMATTR InstName R12
SYMATTR Value 2.2k
SYMBOL npn 1248 512 R0
SYMATTR InstName Q8
SYMATTR Value BC850C
SYMBOL res 1296 672 R0
SYMATTR InstName R14
SYMATTR Value 47
SYMBOL cap 784 352 R0
SYMATTR InstName C2
SYMATTR Value 1µ
SYMBOL npn 3072 -384 R0
SYMATTR InstName Q9
SYMATTR Value 2N3055
SYMBOL npn 2816 -112 R0
SYMATTR InstName Q10
SYMATTR Value 2N3055
SYMBOL res 3120 80 R0
SYMATTR InstName R15
SYMATTR Value 0.22
SYMBOL pnp 2368 -272 M270
SYMATTR InstName Q11
SYMATTR Value BC860C
SYMBOL pnp 2368 0 M270
SYMATTR InstName Q12
SYMATTR Value BC860C
SYMBOL res 3376 256 R0
SYMATTR InstName R16
SYMATTR Value 8
SYMBOL res 688 1168 R0
SYMATTR InstName R17
SYMATTR Value 11k
SYMBOL res 688 1328 R0
SYMATTR InstName R18
SYMATTR Value 43k
SYMBOL pnp 464 1360 R180
SYMATTR InstName Q13
SYMATTR Value BC860C
SYMBOL res 384 1456 R0
SYMATTR InstName R19
SYMATTR Value 50k
SYMBOL res 384 1584 R0
SYMATTR InstName R20
SYMATTR Value 15k
SYMBOL npn 288 1520 M0
SYMATTR InstName Q14
SYMATTR Value BC850C
SYMBOL res 208 1312 R0
SYMATTR InstName R21
SYMATTR Value 47k
SYMBOL res 2304 64 R0
SYMATTR InstName R22
SYMATTR Value 47k
SYMBOL cap 496 1536 R0
SYMATTR InstName C3
SYMATTR Value 1.5µ
SYMBOL diode 384 1152 R0
SYMATTR InstName D1
SYMATTR Value 1N4001
SYMBOL res 2768 -80 R90
WINDOW 0 0 56 VBottom 2
WINDOW 3 32 56 VTop 2
SYMATTR InstName R23
SYMATTR Value 18
SYMBOL res 2864 -352 R90
WINDOW 0 0 56 VBottom 2
WINDOW 3 32 56 VTop 2
SYMATTR InstName R24
SYMATTR Value 4.7
SYMBOL res 592 1296 R90
WINDOW 0 0 56 VBottom 2
WINDOW 3 32 56 VTop 2
SYMATTR InstName R25
SYMATTR Value 150k
SYMBOL res 400 1040 R90
WINDOW 0 0 56 VBottom 2
WINDOW 3 32 56 VTop 2
SYMATTR InstName R26
SYMATTR Value 100k
SYMBOL res 3120 368 M180
WINDOW 0 36 76 Left 2
WINDOW 3 36 40 Left 2
SYMATTR InstName R27
SYMATTR Value 0.22
SYMBOL res 1616 1616 M180
WINDOW 0 36 76 Left 2
WINDOW 3 36 40 Left 2
SYMATTR InstName R28
SYMATTR Value 11k
SYMBOL res 1616 1456 M180
WINDOW 0 36 76 Left 2
WINDOW 3 36 40 Left 2
SYMATTR InstName R29
SYMATTR Value 43k
SYMBOL res 1312 1328 M180
WINDOW 0 36 76 Left 2
WINDOW 3 36 40 Left 2
SYMATTR InstName R30
SYMATTR Value 50k
SYMBOL res 1312 1200 M180
WINDOW 0 36 76 Left 2
WINDOW 3 36 40 Left 2
SYMATTR InstName R31
SYMATTR Value 15k
SYMBOL res 1136 1472 M180
WINDOW 0 36 76 Left 2
WINDOW 3 36 40 Left 2
SYMATTR InstName R32
SYMATTR Value 47k
SYMBOL res 2304 320 M180
WINDOW 0 36 76 Left 2
WINDOW 3 36 40 Left 2
SYMATTR InstName R33
SYMATTR Value 47k
SYMBOL cap 1424 1248 M180
WINDOW 0 24 56 Left 2
WINDOW 3 24 8 Left 2
SYMATTR InstName C4
SYMATTR Value 1.5µ
SYMBOL diode 1344 1568 M0
SYMATTR InstName D2
SYMATTR Value 1N4001
SYMBOL res 2768 528 M270
WINDOW 0 32 56 VTop 2
WINDOW 3 0 56 VBottom 2
SYMATTR InstName R34
SYMATTR Value 18
SYMBOL res 2864 800 M270
WINDOW 0 32 56 VTop 2
WINDOW 3 0 56 VBottom 2
SYMATTR InstName R35
SYMATTR Value 4.7
SYMBOL res 1536 1488 M270
WINDOW 0 32 56 VTop 2
WINDOW 3 0 56 VBottom 2
SYMATTR InstName R36
SYMATTR Value 150k
SYMBOL res 1328 1744 M270
WINDOW 0 32 56 VTop 2
WINDOW 3 0 56 VBottom 2
SYMATTR InstName R37
SYMATTR Value 100k
SYMBOL npn 1392 1424 M0
SYMATTR InstName Q15
SYMATTR Value BC850C
SYMBOL npn 2368 448 R90
SYMATTR InstName Q16
SYMATTR Value BC850C
SYMBOL npn 2368 720 R90
SYMATTR InstName Q17
SYMATTR Value BC850C
SYMBOL pnp 1216 1264 R180
SYMATTR InstName Q18
SYMATTR Value BC860C
SYMBOL pnp 3072 832 M180
SYMATTR InstName Q19
SYMATTR Value MJ2955
SYMBOL pnp 2816 560 M180
SYMATTR InstName Q20
SYMATTR Value MJ2955
SYMBOL voltage 512 -1280 R0
WINDOW 123 0 0 Left 0
WINDOW 39 0 0 Left 0
SYMATTR InstName V7
SYMATTR Value 30
SYMBOL voltage 656 -1280 R0
WINDOW 123 0 0 Left 0
WINDOW 39 0 0 Left 0
SYMATTR InstName V8
SYMATTR Value 15
SYMBOL voltage 512 -944 R0
WINDOW 123 0 0 Left 0
WINDOW 39 0 0 Left 0
SYMATTR InstName V9
SYMATTR Value -30
SYMBOL voltage 656 -944 R0
WINDOW 123 0 0 Left 0
WINDOW 39 0 0 Left 0
SYMATTR InstName V10
SYMATTR Value -15
SYMBOL res 784 80 R0
SYMATTR InstName R39
SYMATTR Value 20k
SYMBOL LED 560 640 R0
SYMATTR InstName D3
SYMATTR Value NSSW008CT-P1
SYMBOL cap 1392 -480 R0
SYMATTR InstName C5
SYMATTR Value 1µ
SYMBOL pnp 2944 832 M180
SYMATTR InstName Q21
SYMATTR Value MJE350
SYMBOL res 3008 256 R0
SYMATTR InstName R40
SYMATTR Value 1k
SYMBOL npn 2928 -384 R0
SYMATTR InstName Q22
SYMATTR Value MJE340
SYMBOL res 3008 80 R0
SYMATTR InstName R41
SYMATTR Value 1k
SYMBOL res 560 688 R0
SYMATTR InstName R13
SYMATTR Value 47
SYMBOL cap 720 112 R0
SYMATTR InstName C6
SYMATTR Value 4.7p
SYMBOL pnp 1072 -32 M180
SYMATTR InstName Q23
SYMATTR Value BC860C
SYMBOL res 1120 -512 R0
SYMATTR InstName R42
SYMATTR Value 1k
SYMBOL cap 1136 48 R90
WINDOW 0 0 32 VBottom 2
WINDOW 3 32 32 VTop 2
SYMATTR InstName C8
SYMATTR Value 20p
SYMBOL cap 1408 224 R0
SYMATTR InstName C7
SYMATTR Value 10µ
SYMBOL diode 208 1216 R0
SYMATTR InstName D4
SYMATTR Value 1N4001
SYMBOL diode 1168 1488 M0
SYMATTR InstName D5
SYMATTR Value 1N4001
SYMBOL diode 1344 1360 M0
SYMATTR InstName D6
SYMATTR Value 1N4001
SYMBOL diode 384 1360 R0
SYMATTR InstName D7
SYMATTR Value 1N4001
SYMBOL diode 80 1216 R0
SYMATTR InstName D8
SYMATTR Value 1N4001
SYMBOL diode 1536 1632 M180
WINDOW 0 24 64 Left 2
WINDOW 3 24 0 Left 2
SYMATTR InstName D9
SYMATTR Value 1N4001
SYMBOL pnp 1744 608 M180
SYMATTR InstName Q24
SYMATTR Value BC860C
SYMBOL npn 1744 -32 R0
SYMATTR InstName Q25
SYMATTR Value BC850C
SYMBOL npn 1648 -80 R0
SYMATTR InstName Q26
SYMATTR Value BC850C
SYMBOL pnp 1648 656 M180
SYMATTR InstName Q27
SYMATTR Value BC860C
SYMBOL res 1296 112 R0
SYMATTR InstName R44
SYMATTR Value 50
SYMBOL res 2864 352 R90
WINDOW 0 0 56 VBottom 2
WINDOW 3 32 56 VTop 2
SYMATTR InstName R45
SYMATTR Value 3.3k
SYMBOL res 2896 64 R90
WINDOW 0 0 56 VBottom 2
WINDOW 3 32 56 VTop 2
SYMATTR InstName R46
SYMATTR Value 3.3k
SYMBOL pnp 2704 416 R180
SYMATTR InstName Q28
SYMATTR Value BC860C
SYMBOL npn 2704 32 M0
SYMATTR InstName Q29
SYMATTR Value BC850C
SYMBOL res 2624 128 R0
SYMATTR InstName R47
SYMATTR Value 10k
TEXT 912 -824 Left 2 !.tran 0 20m 10m
TEXT 912 -728 Left 2 !;FOUR 1khz V(V_OUT)
TEXT 1336 -1160 Left 2 !.inc MJ2955.LIB
TEXT 1336 -1200 Left 2 !.inc 2N3055.LIB
TEXT 1336 -1240 Left 2 !.inc 2N5551.LIB
TEXT 1336 -1280 Left 2 !.inc 2N5401.LIB
TEXT 1336 -1320 Left 2 !.inc 1N4001.LIB
TEXT -744 -1392 Left 2 !.MODEL BC850C NPN(\n+ AF= 1.00E+00 BF= 3.20E+02 BR= 1.47E+01 CJC= 7.16E-12\n+ CJE= 1.03E-11 CJS= 0.00E+00 EG= 1.11E+00 FC= 5.00E-01\n+ IKF= 1.79E-01 IKR= 1.00E+00 IRB= 3.37E-03 IS= 3.71E-13\n+ ISC= 1.71E-13 ISE= 2.77E-15 ITF= 2.26E+00 KF= 0.00E+00\n+ MJC= 4.60E-01 MJE= 3.86E-01 MJS= 3.30E-01 NC= 1.21E+00\n+ NE= 1.37E+00 NF= 1.14E+00 NR= 1.21E+00 PTF= 0.00E+00\n+ RB= 1.00E+02 RBM= 1.00E+01 RC= 1.75E+00 RE= 1.00E-02\n+ TF= 5.65E-10 TR= 0.00E+00 VAF= 2.49E+02 VAR= 3.31E+01\n+ VJC= 3.00E-01 VJE= 3.00E-01 VJS= 7.50E-01 VTF= 9.99E+05\n+ XCJC= 1.00E+00 XTB= 0.00E+00 XTF= 1.10E+02 XTI= 3.00E+00)
TEXT -736 -1040 Left 2 !.MODEL BC860C PNP(\n+ AF= 1.00E+00 BF= 1.72E+02 BR= 2.85E-02 CJC= 1.13E-11\n+ CJE= 1.13E-10 CJS= 0.00E+00 EG= 1.11E+00 FC= 5.00E-01\n+ IKF= 1.33E-01 IKR= 1.00E+00 IRB= 2.46E-03 IS= 1.63E-13\n+ ISC= 7.42E-13 ISE= 4.39E-13 ITF= 2.78E+00 KF= 0.00E+00\n+ MJC= 3.98E-01 MJE= 5.98E-01 MJS= 3.30E-01 NC= 1.52E+00\n+ NE= 2.00E+00 NF= 1.06E+00 NR= 1.51E+00 PTF= 0.00E+00\n+ RB= 5.00E+01 RBM= 1.00E+01 RC= 3.83E+00 RE= 1.00E-02\n+ TF= 5.30E-10 TR= 0.00E+00 VAF= 2.68E+01 VAR= 1.00E+01\n+ VJC= 3.00E-01 VJE= 7.38E-01 VJS= 7.50E-01 VTF= 9.99E+05\n+ XCJC= 1.00E+00 XTB= 0.00E+00 XTF= 3.39E-01 XTI= 3.00E+00)
TEXT 1072 -1384 Left 2 !.lib opamp.sub
TEXT 920 -776 Left 2 !;ac dec 1000 10m 10Meg
TEXT 912 -688 Left 2 !;op
TEXT 920 -864 Left 2 !.option numdgt=7
TEXT 1336 -1120 Left 2 !.inc MJE340.LIB
TEXT 1336 -1080 Left 2 !.inc MJE350.LIB
