Version 4
SHEET 1 2360 1220
WIRE 224 -816 224 -912
WIRE 224 -816 48 -816
WIRE 384 -816 224 -816
WIRE 1088 -816 384 -816
WIRE 1712 -816 1088 -816
WIRE 48 -752 48 -816
WIRE 384 -752 384 -816
WIRE 1088 -656 1088 -816
WIRE 48 -624 48 -672
WIRE 384 -624 384 -672
WIRE 208 -576 112 -576
WIRE 320 -576 208 -576
WIRE 208 -464 208 -576
WIRE 384 -464 384 -528
WIRE 384 -464 208 -464
WIRE 1088 -464 1088 -576
WIRE 1712 -432 1712 -816
WIRE 48 -416 48 -528
WIRE 1024 -416 48 -416
WIRE 2016 -208 1568 -208
WIRE 2304 -208 2080 -208
WIRE 1088 -160 1088 -368
WIRE 1504 -160 1088 -160
WIRE 2304 16 2304 -208
WIRE 48 144 48 -416
WIRE 384 144 384 -464
WIRE -304 192 -384 192
WIRE -96 192 -240 192
WIRE -16 192 -96 192
WIRE 544 192 448 192
WIRE 736 192 544 192
WIRE 1568 192 1568 -112
WIRE 1568 192 816 192
WIRE 1712 192 1712 -336
WIRE 1712 192 1568 192
WIRE 1968 192 1712 192
WIRE 544 208 544 192
WIRE 2304 208 2304 96
WIRE -384 224 -384 192
WIRE -96 224 -96 192
WIRE 48 288 48 240
WIRE 384 288 384 240
WIRE 1088 304 1088 -160
WIRE 1088 304 992 304
WIRE -96 320 -96 304
WIRE -96 320 -272 320
WIRE 544 320 544 288
WIRE 992 320 992 304
WIRE 2304 320 2304 208
WIRE -384 336 -384 304
WIRE -96 384 -96 320
WIRE 1568 384 1568 192
WIRE 48 400 48 368
WIRE 208 400 48 400
WIRE 384 400 384 368
WIRE 384 400 208 400
WIRE 544 400 544 384
WIRE 1088 416 1088 304
WIRE 1504 432 1248 432
WIRE -272 464 -272 320
WIRE 992 464 992 400
WIRE 1024 464 992 464
WIRE 1984 480 1568 480
WIRE 2304 480 2304 400
WIRE 2304 480 2048 480
WIRE 992 512 992 464
WIRE 992 624 992 592
WIRE 992 720 992 704
WIRE 1088 720 1088 512
WIRE 1088 720 992 720
WIRE 1248 720 1248 432
WIRE 1248 720 1088 720
WIRE 208 816 208 400
WIRE 1088 816 1088 720
WIRE 1712 832 1712 192
WIRE -96 864 -96 464
WIRE -16 864 -96 864
WIRE 144 864 64 864
WIRE 1024 864 144 864
WIRE 208 976 208 912
WIRE 1088 992 1088 912
WIRE 208 1104 208 1056
WIRE 1088 1104 1088 1072
WIRE 1088 1104 208 1104
WIRE 1712 1104 1712 928
WIRE 1712 1104 1088 1104
WIRE 208 1120 208 1104
FLAG -272 464 0
FLAG 224 -992 0
FLAG 208 1200 0
FLAG 544 400 0
FLAG -384 336 0
FLAG 1968 272 0
FLAG 2304 208 0
SYMBOL npn -16 144 R0
SYMATTR InstName Q1
SYMBOL npn 448 144 M0
SYMATTR InstName Q2
SYMBOL pnp 320 -528 M180
SYMATTR InstName Q3
SYMBOL pnp 112 -528 R180
SYMATTR InstName Q4
SYMBOL res 32 272 R0
SYMATTR InstName R1
SYMATTR Value 22
SYMBOL res 368 272 R0
SYMATTR InstName R2
SYMATTR Value 22
SYMBOL res 32 -768 R0
SYMATTR InstName R3
SYMATTR Value 22
SYMBOL res 368 -768 R0
SYMATTR InstName R4
SYMATTR Value 22
SYMBOL npn 144 816 R0
SYMATTR InstName Q5
SYMBOL res 80 848 R90
WINDOW 0 0 56 VBottom 2
WINDOW 3 32 56 VTop 2
SYMATTR InstName R5
SYMATTR Value 4.7k
SYMBOL res -80 480 R180
WINDOW 0 36 76 Left 2
WINDOW 3 36 40 Left 2
SYMATTR InstName R6
SYMATTR Value 4.7k
SYMBOL res 192 960 R0
SYMATTR InstName R7
SYMATTR Value 470
SYMBOL res -112 208 R0
SYMATTR InstName R8
SYMATTR Value 22k
SYMBOL voltage 224 -896 R180
WINDOW 0 24 96 Left 2
WINDOW 3 24 16 Left 2
SYMATTR InstName V1
SYMATTR Value 40
SYMBOL voltage 208 1216 R180
WINDOW 0 24 96 Left 2
WINDOW 3 24 16 Left 2
SYMATTR InstName V2
SYMATTR Value 40
SYMBOL res 528 192 R0
SYMATTR InstName R9
SYMATTR Value 1k
SYMBOL cap -240 176 R90
WINDOW 0 0 32 VBottom 2
WINDOW 3 32 32 VTop 2
SYMATTR InstName C1
SYMATTR Value 1µ
SYMBOL voltage -384 208 R0
WINDOW 3 24 152 Left 2
WINDOW 123 24 124 Left 2
WINDOW 39 0 0 Left 0
SYMATTR InstName V3
SYMATTR Value SINE(0 1v 1k 0)
SYMBOL pnp 1024 -368 M180
SYMATTR InstName Q6
SYMBOL res 1072 -672 R0
SYMATTR InstName R10
SYMATTR Value 22
SYMBOL npn 1024 416 R0
SYMATTR InstName Q7
SYMBOL res 976 304 R0
SYMATTR InstName R11
SYMATTR Value 220
SYMBOL res 976 496 R0
SYMATTR InstName R12
SYMATTR Value 220
SYMBOL res 976 608 R0
SYMATTR InstName R13
SYMATTR Value 220
SYMBOL npn 1024 816 R0
SYMATTR InstName Q8
SYMBOL res 1072 976 R0
SYMATTR InstName R14
SYMATTR Value 22
SYMBOL cap 528 320 R0
SYMATTR InstName C2
SYMATTR Value 1µ
SYMBOL res 832 176 R90
WINDOW 0 0 56 VBottom 2
WINDOW 3 32 56 VTop 2
SYMATTR InstName R15
SYMATTR Value 22k
SYMBOL res 1952 176 R0
SYMATTR InstName R16
SYMATTR Value 10
SYMBOL npn 1504 -208 R0
SYMATTR InstName Q9
SYMBOL pnp 1504 480 M180
SYMATTR InstName Q10
SYMBOL voltage 2304 0 R0
SYMATTR InstName V4
SYMATTR Value 20
SYMBOL voltage 2304 304 R0
SYMATTR InstName V5
SYMATTR Value 20
SYMBOL pnp 1648 928 M180
SYMATTR InstName Q11
SYMBOL npn 1648 -432 R0
SYMATTR InstName Q12
SYMBOL schottky 2080 -224 R90
WINDOW 0 0 32 VBottom 2
WINDOW 3 32 32 VTop 2
SYMATTR InstName D1
SYMBOL schottky 1984 464 M90
WINDOW 0 0 32 VBottom 2
WINDOW 3 32 32 VTop 2
SYMATTR InstName D2
TEXT -904 264 Left 2 !.tran 10m
