*SRC=MMBTA56;DI_MMBTA56;BJTs PNP; Si;  80.0V  0.500A  163MHz   Diodes Inc.

.MODEL MMBTA56 pnp
+ IS=50.8f NF=1.00 BF=91.63 VAF=161
+ IKF=91.1m ISE=9.99p NE=2.00 BR=1.287 NR=1.00
+ VAR=16.0 IKR=0.225 RE=0.103 RB=0.412 RC=41.2m
+ XTB=1.5 CJE=125p VJE=1.10 MJE=0.500 CJC=40.2p VJC=0.300
+ MJC=0.300 TF=660p TR=149n EG=1.12

